<?xml version="1.0" encoding="UTF-8"?>
<nodes>
    <node id="n1" x="0.0" y="100.0" type="traffic_light"/>
    <node id="n2" x="100.0" y="100.0" type="traffic_light"/>
    <node id="n3" x="0.0" y="0.0" type="traffic_light"/>
    <node id="n4" x="100.0" y="0.0" type="traffic_light"/>
    <node id="top_left" x="-50.0" y="150.0" type="dead_end"/>
    <node id="top_right" x="150.0" y="150.0" type="dead_end"/>
    <node id="bottom_left" x="-50.0" y="-50.0" type="dead_end"/>
    <node id="bottom_right" x="150.0" y="-50.0" type="dead_end"/>
    <node id="left" x="-50.0" y="50.0" type="dead_end"/>
    <node id="right" x="150.0" y="50.0" type="dead_end"/>
    <node id="top" x="50.0" y="150.0" type="dead_end"/>
    <node id="bottom" x="50.0" y="-50.0" type="dead_end"/>
</nodes>