<?xml version="1.0" encoding="UTF-8"?>
<routes>
    <!-- Vehicle type definition -->
    <vType id="car" accel="2.6" decel="4.5" sigma="0.5" length="5" maxSpeed="13.9"/>

    <!-- Routes -->
    <route id="route_0" edges="left_n1 n1_n2 n2_right"/>
    <route id="route_1" edges="top_left_n1 n1_n3 n3_bottom"/>
    <route id="route_2" edges="top_right_n2 n2_n1 n1_left"/>
    <route id="route_3" edges="bottom_left_n3 n3_n4 n4_bottom_right"/>
    <route id="route_4" edges="top_left_n1 n1_n2 n2_n4 n4_bottom_right"/>
    <route id="route_5" edges="left_n1 n1_n3 n3_n4 n4_bottom_right"/>
    <!-- Vehicle flows -->
    <flow id="flow_0" type="car" route="route_0" begin="0"  end="3600" vehsPerHour="300"/>
    <flow id="flow_1" type="car" route="route_1" begin="0"  end="3600" vehsPerHour="300"/>
    <flow id="flow_2" type="car" route="route_2" begin="0"  end="3600" vehsPerHour="200"/>
    <flow id="flow_3" type="car" route="route_3" begin="0"  end="3600" vehsPerHour="200"/>
    <flow id="flow_4" type="car" route="route_4" begin="0"  end="3600" vehsPerHour="250"/>
    <flow id="flow_5" type="car" route="route_5" begin="0"  end="3600" vehsPerHour="250"/>
</routes>